sectionalized/peak_load/60pc/TNB_DUMA_VLN.Txt

SYMMETRICAL COMPONENT VOLTAGES BY BUS (for 3-phase buses)

Bus               Mag:   V1 (kV)    p.u.     V2 (kV)   %V2/V1    V0 (kV)    %V0/V1

ppu_duma_33kv        19.03     0.9987  9.245E-009  4.859E-008 1.239E-009 6.513E-009
ppu_duma_11kv_a      6.278     0.9885  3.256E-009  5.187E-008 3.608E-011 5.748E-010
ppu_duma_11kv_b      6.222     0.9797  3.216E-009  5.168E-008 1.341E-010 2.156E-009
rpplngi2             6.285     0.9896  3.244E-009  5.162E-008 1.335E-010 2.125E-009
pdtjlnmasjid         6.332     0.9971  3.265E-009  5.157E-008 1.332E-010 2.104E-009
bella                6.364      1.002  3.28E-009  5.153E-008 1.331E-010 2.092E-009
pstpdgn               6.38      1.005  3.287E-009  5.152E-008 1.331E-010 2.086E-009
atria_1              6.326     0.9961  3.263E-009  5.158E-008 1.328E-010 2.099E-009
hawker               6.343     0.9987  3.27E-009  5.156E-008 1.455E-010 2.294E-009
duma7                6.248     0.9839  3.222E-009  5.156E-008 1.42E-010 2.273E-009
haus                  6.31     0.9936  3.238E-009  5.132E-008 5.917E-010 9.377E-009
duma6                6.481       1.02  3.276E-009  5.056E-008 2.419E-009 3.733E-008
duma13               6.639      1.045  3.306E-009  4.98E-008 4.402E-009 6.631E-008
ssu_duma5_im2        6.658      1.048  3.308E-009  4.968E-008 4.426E-009 6.648E-008
pdtlitrak            6.411      1.009  3.303E-009  5.152E-008 1.339E-010 2.089E-009
duma12               6.487      1.022  3.338E-009  5.145E-008 1.343E-010 2.07E-009
tmngh4               6.563      1.033  3.373E-009  5.14E-008 1.41E-010 2.148E-009
ssu_tmegah3_ir1      6.593      1.038  3.387E-009  5.138E-008 1.474E-010 2.236E-009
tmngh2               6.605       1.04  3.393E-009  5.137E-008 1.508E-010 2.283E-009
ssu_uptwres_im2      6.246     0.9835  3.227E-009  5.166E-008 1.293E-010 2.069E-009
maybank              6.289     0.9903  3.246E-009  5.162E-008 1.29E-010 2.051E-009
duma8                6.297     0.9916  3.25E-009  5.161E-008 1.278E-010 2.03E-009
duma9                6.342     0.9987  3.27E-009  5.156E-008 1.33E-010 2.097E-009
duma1                6.392      1.006  3.292E-009  5.151E-008 1.328E-010 2.077E-009
elite                 6.41      1.009   3.3E-009  5.149E-008 1.327E-010 2.07E-009
pamdra               6.286     0.9898  3.26E-009  5.186E-008 3.619E-011 5.758E-010
duma4                6.314     0.9942  3.273E-009  5.183E-008 4.755E-011 7.531E-010
plsdra               6.373      1.003   3.3E-009  5.178E-008 8.89E-011 1.395E-009
prmte                6.315     0.9943  3.273E-009  5.183E-008 7.046E-011 1.116E-009
prmta                6.322     0.9955  3.277E-009  5.183E-008 7.118E-011 1.126E-009
pmontb               6.331     0.9968  3.281E-009  5.182E-008 7.714E-011 1.219E-009
plngi_b              6.322     0.9954  3.276E-009  5.182E-008 3.674E-011 5.811E-010
plngi_d              6.346     0.9993  3.287E-009  5.179E-008 3.716E-011 5.855E-010
sprk9                6.407      1.009  3.315E-009  5.174E-008 4.178E-011 6.52E-010
bomba                6.415       1.01  3.318E-009  5.173E-008 4.547E-011 7.088E-010
sprk8                6.436      1.013  3.328E-009  5.171E-008 5.765E-011 8.958E-010
ssu_dsarcntr_ir1     6.301     0.9922  3.267E-009  5.184E-008 3.633E-011 5.766E-010
duma10               6.376      1.004   3.3E-009  5.176E-008 3.831E-011 6.008E-010
balaipolis           6.377      1.004  3.301E-009  5.176E-008 3.834E-011 6.012E-010
ssu_uptwres_ir1       6.38      1.005  3.303E-009  5.178E-008 8.958E-011 1.404E-009
ppu_duma_vcb1            0          0          0          0         0         0
